egret/models/tests/pglib_opf_case3_lmbd_ptdf_0960.json
{"elements": {"bus": {"1": {"matpower_bustype": "ref", "area": 1.0, "vm": 1.1, "va": 0.0, "base_kv": 240.0, "zone": 1.0, "v_min": 0.9, "v_max": 1.1, "lmp": 3757.4719464921395, "qlmp": 6.330809955896888e-09, "pl": 1.1, "ql": 0.4, "phi_from": {}, "phi_to": {}, "phi_loss_from": {}, "phi_loss_to": {}, "phi_q_from": {}, "phi_q_to": {}, "phi_loss_q_from": {}, "phi_loss_q_to": {}}, "2": {"matpower_bustype": "PV", "area": 1.0, "vm": 0.9261705368424074, "va": 0.12669049215620656, "base_kv": 240.0, "zone": 1.0, "v_min": 0.9, "v_max": 1.1, "lmp": 3010.1069856506197, "qlmp": -1.0238323799585612e-09, "pl": 1.1, "ql": 0.4, "phi_from": {}, "phi_to": {}, "phi_loss_from": {}, "phi_loss_to": {}, "phi_q_from": {}, "phi_q_to": {}, "phi_loss_q_from": {}, "phi_loss_q_to": {}}, "3": {"matpower_bustype": "PV", "area": 1.0, "vm": 0.9, "va": -0.30136769433968996, "base_kv": 240.0, "zone": 1.0, "v_min": 0.9, "v_max": 1.1, "lmp": 4553.647798903497, "qlmp": -6.352005373146987e-10, "pl": 0.95, "ql": 0.5, "phi_from": {}, "phi_to": {}, "phi_loss_from": {}, "phi_loss_to": {}, "phi_q_from": {}, "phi_q_to": {}, "phi_loss_q_from": {}, "phi_loss_q_to": {}}}, "load": {"load_1": {"in_service": true, "p_load": 1.056, "q_load": 0.384, "bus": "1"}, "load_2": {"in_service": true, "p_load": 1.056, "q_load": 0.384, "bus": "2"}, "load_3": {"in_service": true, "p_load": 0.912, "q_load": 0.48, "bus": "3"}}, "generator": {"1": {"bus": "1", "pg": 1.4806690667470335, "qg": 0.5469726781885995, "vg": 1.0, "mbase": 100.0, "in_service": true, "p_min": 0.0, "p_max": 20.0, "q_min": -10.0, "q_max": 10.0, "generator_type": "thermal", "p_cost": {"data_type": "cost_curve", "cost_curve_type": "polynomial", "values": {"0": 0.0, "1": 500.0, "2": 1100.0}}, "startup_cost": 0.0, "shutdown_cost": 0.0}, "2": {"bus": "2", "pg": 1.7000629329121433, "qg": -0.08791134988541954, "vg": 1.0, "mbase": 100.0, "in_service": true, "p_min": 0.0, "p_max": 20.0, "q_min": -10.0, "q_max": 10.0, "generator_type": "thermal", "p_cost": {"data_type": "cost_curve", "cost_curve_type": "polynomial", "values": {"0": 0.0, "1": 120.0, "2": 850.0000000000002}}, "startup_cost": 0.0, "shutdown_cost": 0.0}, "3": {"bus": "3", "pg": 0.0, "qg": -0.048426367655517846, "vg": 1.0, "mbase": 100.0, "in_service": true, "p_min": 0.0, "p_max": 0.0, "q_min": -10.0, "q_max": 10.0, "generator_type": "thermal", "p_cost": {"data_type": "cost_curve", "cost_curve_type": "polynomial", "values": {"0": 0.0, "1": 0.0, "2": 0.0}}, "startup_cost": 0.0, "shutdown_cost": 0.0}}, "branch": {"1": {"from_bus": "1", "to_bus": "3", "resistance": 0.065, "reactance": 0.62, "charging_susceptance": 0.45, "branch_type": "line", "rating_long_term": 90.0, "rating_short_term": 90.0, "rating_emergency": 90.0, "in_service": true, "angle_diff_min": -30.0, "angle_diff_max": 30.0, "pf": 0.5130711918521791, "qf": 0.10076336036309558, "pt": -0.4914556828305927, "qt": -0.3490846563423724, "pfl": 0.021615509021586377, "qfl": -0.24832129597927682, "pf_dual": 3757.4719464922764, "qf_dual": 6.359756182730438e-09, "ptdf": {"1": 0.0, "2": 0.39566454388754746, "3": 0.7250340595743854}, "pldf": {"1": 0.0, "2": 0.0, "3": 0.0}, "ptdf_c": 0.0, "pldf_c": 0.0, "Ft": {"1": 1.6129032258064517, "2": 0.0, "3": -1.6129032258064517}, "Fv": {"1": 1.3703682856223864, "2": 0.0, "3": -1.3703682856223864}, "Lt": {"1": 0.0, "2": 0.0, "3": 0.0}, "Lv": {"1": -0.4500000000000002, "2": 0.0, "3": -0.4500000000000002}, "ft_c": 0.0, "fv_c": 0.0, "lt_c": 0.0, "lv_c": 0.4500000000000002}, "2": {"from_bus": "3", "to_bus": "2", "resistance": 0.025, "reactance": 0.75, "charging_susceptance": 0.7, "branch_type": "line", "rating_long_term": 0.5, "rating_short_term": 0.5, "rating_emergency": 0.5, "in_service": true, "angle_diff_min": -30.0, "angle_diff_max": 30.0, "pf": -0.45854431716940725, "qf": -0.1993417113131455, "pt": 0.4652525119736147, "qt": -0.18313959121065226, "pfl": 0.0067081948042074235, "qfl": -0.38248130252379775, "pf_dual": 4136.503354328547, "qf_dual": -181.34405376142612, "ptdf": {"1": 0.0, "2": 0.3956645438875475, "3": -0.2749659404256146}, "pldf": {"1": 0.0, "2": 0.0, "3": 0.0}, "ptdf_c": 0.0, "pldf_c": 0.0, "Ft": {"1": 0.0, "2": -1.3333333333333333, "3": 1.3333333333333333}, "Fv": {"1": 0.0, "2": -0.9818534961154274, "3": 0.9818534961154274}, "Lt": {"1": 0.0, "2": 0.0, "3": 0.0}, "Lv": {"1": 0.0, "2": -0.7, "3": -0.7}, "ft_c": 0.0, "fv_c": 0.0, "lt_c": 0.0, "lv_c": 0.7}, "3": {"from_bus": "1", "to_bus": "2", "resistance": 0.042, "reactance": 0.9, "charging_susceptance": 0.3, "branch_type": "line", "rating_long_term": 90.0, "rating_short_term": 90.0, "rating_emergency": 90.0, "in_service": true, "angle_diff_min": -30.0, "angle_diff_max": 30.0, "pf": -0.1324021251051457, "qf": 0.0462093178255039, "pt": 0.13481042093852827, "qt": -0.3047717586747673, "pfl": 0.002408295833382562, "qfl": -0.2585624408492634, "pf_dual": 3757.471946492103, "qf_dual": 6.344517840074416e-09, "ptdf": {"1": 0.0, "2": 0.6043354561124524, "3": 0.2749659404256147}, "pldf": {"1": 0.0, "2": 0.0, "3": 0.0}, "ptdf_c": 0.0, "pldf_c": 0.0, "Ft": {"1": 1.1111111111111112, "2": -1.1111111111111112, "3": 0.0}, "Fv": {"1": 0.9586966162579272, "2": -0.9586966162579272, "3": 0.0}, "Lt": {"1": 0.0, "2": 0.0, "3": 0.0}, "Lv": {"1": -0.30000000000000004, "2": -0.30000000000000004, "3": 0.0}, "ft_c": 0.0, "fv_c": 0.0, "lt_c": 0.0, "lv_c": 0.30000000000000004}}}, "system": {"model_name": "pglib_opf_case3_lmbd", "mpc_version": "'2'", "baseMVA": 100.0, "reference_bus": "1", "reference_bus_angle": 0.0, "total_cost": 5812.642938549221, "ploss": 0.030731999659176362, "qloss": -0.8893650393523379, "mult": 0.96}, "results": {"time": 0.0047528743743896484, "#_cons": 1, "#_vars": 9, "#_nz": 3, "termination": "optimal"}}